Info: SIMULATION PARAMETERS:
Info: TIMESTEP               1
Info: NUMBER OF STEPS        0
Info: STEPS PER CYCLE        10
Info: FIRST LDB TIMESTEP     50
Info: LAST LDB TIMESTEP     -1
Info: HOM BACKGROUND SCALING 1
Info: MIN ATOMS PER PATCH    40
Info: INITIAL TEMPERATURE    298.15
Info: CENTER OF MASS MOVING INITIALLY? NO
Info: DIELECTRIC             1
Info: EXCLUDE                SCALED ONE-FOUR
Info: 1-4 ELECTROSTATICS SCALED BY 1
Info: MODIFIED 1-4 VDW PARAMETERS WILL BE USED
Info: DCD FILENAME           traj2.dcd
Info: DCD FREQUENCY          100
Info: DCD FIRST STEP         100
Info: NO EXTENDED SYSTEM TRAJECTORY OUTPUT
Info: NO VELOCITY DCD OUTPUT
Info: NO FORCE DCD OUTPUT
Info: OUTPUT FILENAME        traj2
Info: BINARY OUTPUT FILES WILL BE USED
Info: NO RESTART FILE
Info: SWITCHING ACTIVE
Info: SWITCHING ON           10
Info: SWITCHING OFF          12
Info: PAIRLIST DISTANCE      13.5
Info: PAIRLIST SHRINK RATE   0.01
Info: PAIRLIST GROW RATE     0.01
Info: PAIRLIST TRIGGER       0.3
Info: PAIRLISTS PER CYCLE    2
Info: PAIRLISTS ENABLED
Info: MARGIN                 0
Info: HYDROGEN GROUP CUTOFF  2.5
Info: PATCH DIMENSION        16
Info: ENERGY OUTPUT STEPS    100
Info: CROSSTERM ENERGY INCLUDED IN DIHEDRAL
Info: TIMING OUTPUT STEPS    1000
Info: LANGEVIN DYNAMICS ACTIVE
Info: LANGEVIN TEMPERATURE   298.15
Info: LANGEVIN USING BBK INTEGRATOR
Info: LANGEVIN DAMPING COEFFICIENT IS 5 INVERSE PS
Info: LANGEVIN DYNAMICS NOT APPLIED TO HYDROGENS
Info: USING VERLET I (r-RESPA) MTS SCHEME.
Info: C1 SPLITTING OF LONG RANGE ELECTROSTATICS
Info: PLACING ATOMS IN PATCHES BY HYDROGEN GROUPS
Info: RIGID BONDS TO HYDROGEN : ALL
Info:         ERROR TOLERANCE : 1e-08
Info:          MAX ITERATIONS : 100
Info: RIGID WATER USING SETTLE ALGORITHM
Info: RANDOM NUMBER SEED     1524146338
Info: USE HYDROGEN BONDS?    NO
Info: COORDINATE PDB         1ubq-lastframe
Info: STRUCTURE FILE         1ubq_m1_autopsf.psf
Info: PARAMETER file: CHARMM format!
Info: PARAMETERS             par_all36_prot.prm
Info: USING ARITHMETIC MEAN TO COMBINE L-J SIGMA PARAMETERS
Info: SUMMARY OF PARAMETERS:
Info: 134 BONDS
Info: 363 ANGLES
Info: 702 DIHEDRAL
Info: 35 IMPROPER
Info: 6 CROSSTERM
Info: 57 VDW
Info: 0 VDW_PAIRS
Info: 0 NBTHOLE_PAIRS
Info: STRUCTURE SUMMARY:
Info: 1231 ATOMS
Info: 1237 BONDS
Info: 2257 ANGLES
Info: 3293 DIHEDRALS
Info: 212 IMPROPERS
Info: 74 CROSSTERMS
Info: 0 EXCLUSIONS
Info: 629 RIGID BONDS
Info: 3064 DEGREES OF FREEDOM
Info: 602 HYDROGEN GROUPS
Info: 4 ATOMS IN LARGEST HYDROGEN GROUP
Info: 602 MIGRATION GROUPS
Info: 4 ATOMS IN LARGEST MIGRATION GROUP
Info: TOTAL MASS = 8564.87 amu
Info: TOTAL CHARGE = 1.0021e-06 e
Info: ADDED 6758 IMPLICIT EXCLUSIONS
Info: NONBONDED TABLE R-SQUARED SPACING: 0.0625
Info: NONBONDED TABLE SIZE: 769 POINTS
Info: ORIGINAL ATOMS MINMAX IS 12.154 9.616 13.554  49.046 41.407 38.103
Info: ADJUSTED ATOMS MINMAX IS 17.2755 13.2876 15.648  40.8205 36.4314 33.878
Info: REMOVING COM VELOCITY 0.300847 0.0567307 0.0469806
TCL: Minimizing for 1000 steps
ETITLE: TS BOND ANGLE DIHED IMPRP ELECT VDW BOUNDARY MISC KINETIC TOTAL TEMP POTENTIAL TOTAL3 TEMPAVG
ENERGY: 0 213.9631 768.4547 764.7211 46.3085 -2736.5667 -220.6341 0.0000 0.0000 0.0000 -1163.7535 0.0000 -1163.7535 -1163.7535 0.0000
ENERGY: 200 91.2655 281.5084 680.0526 15.7798 -2824.5290 -261.6152 0.0000 0.0000 0.0000 -2017.5379 0.0000 -2017.5379 -2017.5379 0.0000
ENERGY: 400 71.1761 265.5825 675.3603 14.0313 -2831.8408 -264.2458 0.0000 0.0000 0.0000 -2069.9363 0.0000 -2069.9363 -2069.9363 0.0000
ENERGY: 600 70.1730 263.0097 673.8389 14.0271 -2835.6864 -263.3560 0.0000 0.0000 0.0000 -2077.9937 0.0000 -2077.9937 -2077.9937 0.0000
ENERGY: 800 69.7766 263.2596 674.5264 13.9384 -2841.3322 -262.3649 0.0000 0.0000 0.0000 -2082.1962 0.0000 -2082.1962 -2082.1962 0.0000
ENERGY: 1000 69.6545 262.9490 675.3864 13.9462 -2842.3825 -262.5164 0.0000 0.0000 0.0000 -2082.9629 0.0000 -2082.9629 -2082.9629 0.0000
TCL: Running for 1000000 steps
ETITLE: TS BOND ANGLE DIHED IMPRP ELECT VDW BOUNDARY MISC KINETIC TOTAL TEMP POTENTIAL TOTAL3 TEMPAVG
ENERGY: 1000 69.6545 262.9490 675.3864 13.9462 -2842.3825 -262.5164 0.0000 0.0000 0.0000 -2082.9629 0.0000 -2082.9629 -2082.9631 0.0000
ENERGY: 201000 250.4038 748.6185 774.9589 53.0962 -2749.0026 -203.1111 0.0000 0.0000 888.1850 -236.8512 291.7461 -1125.0363 -234.8201 297.3845
ENERGY: 401000 239.1151 780.4615 770.3596 42.2580 -2799.5200 -196.2177 0.0000 0.0000 921.9642 -241.5794 302.8417 -1163.5436 -238.9873 299.6787
ENERGY: 601000 236.6469 761.6261 766.8565 37.2361 -2754.7566 -227.7079 0.0000 0.0000 888.8255 -291.2735 291.9565 -1180.0990 -287.9566 294.4841
ENERGY: 801000 248.0447 711.3177 773.2149 52.4754 -2764.7115 -200.9025 0.0000 0.0000 925.0285 -255.5328 303.8482 -1180.5612 -251.9068 299.5880
ENERGY: 1001000 238.5851 765.6176 759.8307 43.6230 -2779.0528 -197.6251 0.0000 0.0000 946.0718 -222.9497 310.7604 -1169.0215 -220.7185 304.5424
