Info: SIMULATION PARAMETERS:
Info: TIMESTEP               1
Info: NUMBER OF STEPS        0
Info: STEPS PER CYCLE        10
Info: FIRST LDB TIMESTEP     50
Info: LAST LDB TIMESTEP     -1
Info: HOM BACKGROUND SCALING 1
Info: MIN ATOMS PER PATCH    40
Info: INITIAL TEMPERATURE    298.15
Info: CENTER OF MASS MOVING INITIALLY? NO
Info: DIELECTRIC             1
Info: EXCLUDE                SCALED ONE-FOUR
Info: 1-4 ELECTROSTATICS SCALED BY 1
Info: MODIFIED 1-4 VDW PARAMETERS WILL BE USED
Info: DCD FILENAME           traj.dcd
Info: DCD FREQUENCY          100
Info: DCD FIRST STEP         100
Info: NO EXTENDED SYSTEM TRAJECTORY OUTPUT
Info: NO VELOCITY DCD OUTPUT
Info: NO FORCE DCD OUTPUT
Info: OUTPUT FILENAME        traj
Info: BINARY OUTPUT FILES WILL BE USED
Info: NO RESTART FILE
Info: SWITCHING ACTIVE
Info: SWITCHING ON           10
Info: SWITCHING OFF          12
Info: PAIRLIST DISTANCE      13.5
Info: PAIRLIST SHRINK RATE   0.01
Info: PAIRLIST GROW RATE     0.01
Info: PAIRLIST TRIGGER       0.3
Info: PAIRLISTS PER CYCLE    2
Info: PAIRLISTS ENABLED
Info: MARGIN                 0
Info: HYDROGEN GROUP CUTOFF  2.5
Info: PATCH DIMENSION        16
Info: ENERGY OUTPUT STEPS    100
Info: CROSSTERM ENERGY INCLUDED IN DIHEDRAL
Info: TIMING OUTPUT STEPS    1000
Info: LANGEVIN DYNAMICS ACTIVE
Info: LANGEVIN TEMPERATURE   298.15
Info: LANGEVIN USING BBK INTEGRATOR
Info: LANGEVIN DAMPING COEFFICIENT IS 5 INVERSE PS
Info: LANGEVIN DYNAMICS NOT APPLIED TO HYDROGENS
Info: USING VERLET I (r-RESPA) MTS SCHEME.
Info: C1 SPLITTING OF LONG RANGE ELECTROSTATICS
Info: PLACING ATOMS IN PATCHES BY HYDROGEN GROUPS
Info: RIGID BONDS TO HYDROGEN : ALL
Info:         ERROR TOLERANCE : 1e-08
Info:          MAX ITERATIONS : 100
Info: RIGID WATER USING SETTLE ALGORITHM
Info: RANDOM NUMBER SEED     1524129902
Info: USE HYDROGEN BONDS?    NO
Info: COORDINATE PDB         1ubq_m1_autopsf.pdb
Info: STRUCTURE FILE         1ubq_m1_autopsf.psf
Info: PARAMETER file: CHARMM format!
Info: PARAMETERS             par_all36_prot.prm
Info: USING ARITHMETIC MEAN TO COMBINE L-J SIGMA PARAMETERS
Info: SUMMARY OF PARAMETERS:
Info: 134 BONDS
Info: 363 ANGLES
Info: 702 DIHEDRAL
Info: 35 IMPROPER
Info: 6 CROSSTERM
Info: 57 VDW
Info: 0 VDW_PAIRS
Info: 0 NBTHOLE_PAIRS
Info: STRUCTURE SUMMARY:
Info: 1231 ATOMS
Info: 1237 BONDS
Info: 2257 ANGLES
Info: 3293 DIHEDRALS
Info: 212 IMPROPERS
Info: 74 CROSSTERMS
Info: 0 EXCLUSIONS
Info: 629 RIGID BONDS
Info: 3064 DEGREES OF FREEDOM
Info: 602 HYDROGEN GROUPS
Info: 4 ATOMS IN LARGEST HYDROGEN GROUP
Info: 602 MIGRATION GROUPS
Info: 4 ATOMS IN LARGEST MIGRATION GROUP
Info: TOTAL MASS = 8564.87 amu
Info: TOTAL CHARGE = 1.0021e-06 e
Info: ADDED 6758 IMPLICIT EXCLUSIONS
Info: NONBONDED TABLE R-SQUARED SPACING: 0.0625
Info: NONBONDED TABLE SIZE: 769 POINTS
Info: ORIGINAL ATOMS MINMAX IS 15.44 12.888 -0.366  46.125 45.268 35.925
Info: ADJUSTED ATOMS MINMAX IS 19.3821 17.7696 3.77363  41.9309 39.6034 26.7674
Info: REMOVING COM VELOCITY -0.09399 0.163329 -0.122152
TCL: Minimizing for 1000 steps
ETITLE: TS BOND ANGLE DIHED IMPRP ELECT VDW BOUNDARY MISC KINETIC TOTAL TEMP POTENTIAL TOTAL3 TEMPAVG
ENERGY: 0 263.6662 351.8868 706.5744 10.7699 -1524.4012 376.2985 0.0000 0.0000 0.0000 184.7946 0.0000 184.7946 184.7946 0.0000
ENERGY: 200 75.9081 239.7825 667.3277 10.2334 -2003.2994 -341.7516 0.0000 0.0000 0.0000 -1351.7994 0.0000 -1351.7994 -1351.7994 0.0000
ENERGY: 400 67.9373 243.0253 664.9356 9.5837 -2158.4851 -317.7874 0.0000 0.0000 0.0000 -1490.7905 0.0000 -1490.7905 -1490.7905 0.0000
ENERGY: 600 78.9957 254.6855 679.7857 11.2426 -2283.5157 -292.2731 0.0000 0.0000 0.0000 -1551.0794 0.0000 -1551.0794 -1551.0794 0.0000
ENERGY: 800 68.7139 252.8596 675.2811 10.5461 -2373.8937 -283.8392 0.0000 0.0000 0.0000 -1650.3323 0.0000 -1650.3323 -1650.3323 0.0000
ENERGY: 1000 69.9567 250.8358 673.7740 11.5458 -2418.9219 -290.1879 0.0000 0.0000 0.0000 -1702.9975 0.0000 -1702.9975 -1702.9975 0.0000
TCL: Running for 1000000 steps
ETITLE: TS BOND ANGLE DIHED IMPRP ELECT VDW BOUNDARY MISC KINETIC TOTAL TEMP POTENTIAL TOTAL3 TEMPAVG
ENERGY: 1000 69.9567 250.8358 673.7740 11.5458 -2418.9219 -290.1879 0.0000 0.0000 0.0000 -1702.9975 0.0000 -1702.9975 -1703.0075 0.0000
ENERGY: 201000 222.4046 725.4908 786.0984 46.0485 -2708.6682 -215.2218 0.0000 0.0000 959.9747 -183.8730 315.3272 -1143.8477 -181.7730 300.6248
ENERGY: 401000 229.5733 712.9337 765.6919 38.5585 -2722.3380 -206.3435 0.0000 0.0000 929.7439 -252.1802 305.3971 -1181.9241 -251.6388 297.9003
ENERGY: 601000 268.8421 779.0756 778.2624 50.4906 -2728.2131 -246.9987 0.0000 0.0000 891.9497 -206.5913 292.9827 -1098.5410 -201.2345 298.8012
ENERGY: 801000 216.0811 748.9213 793.0465 44.9817 -2754.2753 -205.7665 0.0000 0.0000 887.6139 -269.3973 291.5585 -1157.0112 -266.6284 290.8923
ENERGY: 1001000 214.2957 768.0259 764.6881 46.2503 -2736.5508 -220.6909 0.0000 0.0000 941.7277 -222.2541 309.3335 -1163.9818 -219.5489 300.1130
